/*--------------------------------*- C++ -*----------------------------------*\
| =========                 |                                                 |
| \\      /  F ield         | OpenFOAM: The Open Source CFD Toolbox           |
|  \\    /   O peration     | Version:  v2112                                 |
|   \\  /    A nd           | Website:  www.openfoam.com                      |
|    \\/     M anipulation  |                                                 |
\*---------------------------------------------------------------------------*/
FoamFile
{
    version     2.0;
    format      ascii;
    class       dictionary;
    object      meshQualityDict;
}
// * * * * * * * * * * * * * * * * * * * * * * * * * * * * * * * * * * * * * //

// Include defaults parameters from master dictionary
#includeEtc "caseDicts/meshQualityDict"

//- minFaceWeight (0 -> 0.5)
//minFaceWeight 0.02;

    maxNonOrtho 55;
    maxBoundarySkewness 2;
    maxInternalSkewness 2;
    maxConcave 80;
    minVol 1e-13;
    minTetQuality -1e30;
    minArea -1;
    minTwist 0.02;
    minDeterminant 0.001;
    minFaceWeight 0.05;
    minVolRatio 0.01;
    minTriangleTwist -1;
    nSmoothScale 4;
    errorReduction 0.75;
    relaxed
    {
        maxNonOrtho 55;
    }


// ************************************************************************* //
